$DATA1 SOURCE='HSPICE' VERSION='A-2008.03 32-BIT'
.TITLE '******** digital electronics, inverter design********'
 average_power    pdp              temper           alter#            
    0.               0.              25.0000           1.0000         
